<?xml version="1.0"?>
<nodes><node id="1" x="45.040001" y="75.089996" type="priority"/><node id="8" x="62.330002" y="66.379997" type="priority"/><node id="9" x="-16.990000" y="76.059998" type="priority"/><node id="10" x="45.040001" y="75.089996" type="priority"/><node id="11" x="62.330002" y="66.379997" type="priority"/><node id="12" x="63.180000" y="19.230000" type="priority"/></nodes>
