<?xml version="1.0"?>
<edges><edge id="10000" from="1" to="141" numLanes="3" shape="-358.079010,779.427002 -358.079010,780.224976 -358.079010,778.317017 -358.079010,777.129028 -358.079010,773.901001 -358.079010,776.577026 -358.079010,778.809021 -358.079010,779.648987 -358.079010,778.721008 -358.079010,780.033020 -358.079010,777.513000 -358.079010,775.669006 -358.079987,780.732971 -358.079987,780.732971 -358.085999,771.633972 -358.085999,771.796997 -358.085999,771.633972 -358.085999,776.390015 -358.085999,777.129028 -358.085999,780.538025 -358.085999,777.697998 -358.085999,779.427002 -358.085999,772.851013 -358.085999,772.893005 -358.085999,773.231018 -358.085999,773.395996 -358.085999,779.219971 -358.085999,774.268005 -358.085999,775.844971 -358.085999,773.739014 -358.085999,777.914978 -358.085999,775.432007 -358.085999,774.812988 -358.085999,774.268005 -358.089996,776.039001 -358.092010,772.893005 -358.092010,772.518982 -358.092010,771.950012 -358.092010,771.633972 -358.092010,771.086975 -358.098999,770.348022 -358.105988,770.973022 -358.105988,770.543030 -358.113007,769.153015 -358.119995,769.896973 -358.119995,768.796021 -358.119995,770.119019 -358.119995,768.431030 -358.119995,767.716003 -358.126007,767.434998 -358.126007,768.286011 -358.126007,768.140015 -358.126007,767.046021 -358.126007,767.026978 -358.134003,766.382996 -358.141998,764.807007 -358.148010,766.044006 -358.148010,766.249023 -358.151001,764.179016 -358.154999,764.054993 -358.154999,763.640991 -358.154999,765.065979 -358.161011,765.317993 -358.164001,763.247009 -358.171997,761.341003 -358.171997,762.684998 -358.174988,762.439026 -358.178986,762.239990 -358.178986,760.617981 -358.178986,761.070007 -358.181000,760.348022 -358.181000,761.223022 -358.182007,761.953003 -358.183014,761.838989 -358.184998,760.013000 -358.184998,759.752991 -358.186005,759.346985 -358.196014,759.138000 -358.204987,758.859985 -358.210999,758.343994 -358.210999,758.583008 -358.217010,757.939026 -358.225006,757.541992 -358.225006,757.133972 -358.238007,756.734985 -358.260986,756.437988 -358.269989,755.934998 -358.269989,755.409973 -358.269989,754.103027 -358.273987,755.632019 -358.273987,756.025024 -358.276001,755.041992 -358.278015,754.567017 -358.294006,753.822021 -358.295013,753.822021 -358.311005,753.090027 -358.329010,751.804993 -358.335999,752.706970 -358.342010,751.489990 -358.342010,752.405029 -358.359009,751.052979 -358.359009,750.661987 -358.360992,751.390015 -358.389008,750.041992 -358.406006,749.581970 -358.428986,749.414978 -358.431000,748.989014 -358.434998,748.422974 -358.434998,748.507996 -358.434998,748.422974 -358.441986,748.023987 -358.447998,747.427979 -358.479004,747.132019 -358.506012,746.630981 -358.553986,746.315979 -358.600006,745.796021 -358.614990,745.492981 -358.649994,745.215027 -358.683990,744.854004 -358.713013,744.476990 -358.721985,744.075989 -358.737000,743.711975 -358.764008,743.336975 -358.764008,743.119995 -358.777008,742.846985 -358.816010,742.314026 -358.851013,742.090027 -358.903015,741.820007 -358.925995,741.242981 -358.928986,740.945007 -358.941010,740.406982 -358.957001,740.098022 -358.968994,739.708008 -359.001007,739.242004 -359.059998,738.781982 -359.098999,738.575989 -359.162994,738.242004 -359.218994,737.780029 -359.243011,736.424011 -359.247009,736.851013 -359.252014,737.322998"/></edges>
