<?xml version="1.0" encoding="UTF-8"?>

<!-- generated on Mon Apr 15 10:40:52 2019 by Eclipse SUMO netconvert Version UNKNOWN
<configuration xmlns:xsi="http://www.w3.org/2001/XMLSchema-instance" xsi:noNamespaceSchemaLocation="http://sumo.dlr.de/xsd/netconvertConfiguration.xsd">

    <input>
        <node-files value="generated.nod.xml"/>
        <edge-files value="generated.edg.xml"/>
    </input>

    <output>
        <output-file value="generated_offset.net.xml"/>
    </output>

</configuration>
-->

<net version="1.1" junctionCornerDetail="5" limitTurnSpeed="5.50" xmlns:xsi="http://www.w3.org/2001/XMLSchema-instance" xsi:noNamespaceSchemaLocation="http://sumo.dlr.de/xsd/net_file.xsd">

    <location netOffset="-27.83,-6.96" convBoundary="0.00,0.00,115.08,43.05" origBoundary="27.83,6.96,142.91,50.01" projParameter="!"/>

    <edge id="66" from="1" to="66" priority="-1" shape="114.39,0.47,3.47 112.95,1.78,4.12 111.40,2.98,4.69 109.93,4.28,5.27 108.41,5.46,5.84 106.93,6.74,6.45 105.40,7.95,6.98 103.93,9.23,7.62 102.38,10.43,8.16 100.95,11.71,8.79 99.38,12.93,9.33 97.92,14.20,9.99 96.35,15.38,10.51 94.94,16.71,11.17 93.36,17.90,11.67 91.89,19.18,12.31 90.38,20.35,12.87 88.83,21.68,13.49 87.28,22.89,14.05 85.75,24.19,14.67 84.09,25.33,15.10 82.50,26.53,15.62 80.78,27.61,15.99 79.13,28.72,16.47 77.37,29.71,16.76 75.73,30.81,17.12 73.94,31.73,17.32 72.20,32.66,17.62 70.35,33.56,17.74 68.59,34.43,17.95 66.70,35.23,17.98 64.95,36.07,18.10 63.05,36.74,18.09 61.18,37.49,18.15 59.29,38.10,18.02 57.40,38.75,18.00 55.44,39.29,17.81 53.57,39.90,17.70 51.60,40.32,17.41 49.71,40.83,17.26 47.69,41.19,16.95 45.75,41.60,16.72 43.75,41.88,16.44 41.84,42.22,16.26 39.76,42.41,15.94 37.84,42.66,15.75 35.81,42.77,15.46 33.86,42.95,15.26 31.79,42.97,14.94 29.84,43.05,14.76 27.80,42.96,14.44 25.87,42.98,14.25 23.82,42.87,13.94 21.87,42.91,13.75 19.87,42.81,13.44 17.91,42.80,13.27 15.89,42.75,12.95 13.93,42.73,12.73 11.91,42.66,12.45 9.96,42.70,12.24 7.92,42.61,11.89 5.96,42.62,11.51 3.93,42.52,11.12 1.99,42.54,10.88">
        <lane id="66_0" index="0" speed="13.89" length="133.92" shape="120.38,5.83,3.30 118.10,7.91,4.12 116.51,9.14,4.69 115.05,10.44,5.27 113.48,11.65,5.84 112.03,12.90,6.45 110.52,14.10,6.98 109.00,15.43,7.62 107.49,16.59,8.16 106.09,17.84,8.79 104.46,19.11,9.33 102.95,20.42,9.99 101.52,21.50,10.51 100.11,22.83,11.17 98.40,24.12,11.67 96.96,25.37,12.31 95.44,26.55,12.87 93.90,27.88,13.49 92.33,29.09,14.05 90.63,30.55,14.67 88.75,31.83,15.10 87.04,33.12,15.62 85.14,34.31,15.99 83.33,35.54,16.47 81.57,36.52,16.76 79.81,37.71,17.12 77.65,38.82,17.32 75.82,39.79,17.62 73.87,40.74,17.74 71.93,41.70,17.95 70.00,42.52,17.98 68.02,43.47,18.10 65.86,44.23,18.09 63.90,45.02,18.15 61.81,45.69,18.02 59.77,46.39,18.00 57.74,46.96,17.81 55.65,47.63,17.70 53.48,48.10,17.41 51.44,48.65,17.26 49.22,49.04,16.95 47.14,49.48,16.72 45.00,49.78,16.44 42.90,50.15,16.26 40.65,50.36,15.94 38.57,50.64,15.75 36.38,50.75,15.46 34.27,50.94,15.26 32.00,50.97,14.94 29.84,51.06,14.76 27.66,50.96,14.44 25.68,50.98,14.25 23.69,50.87,13.94 21.76,50.92,13.75 19.65,50.81,13.44 17.78,50.80,13.27 15.74,50.75,12.95 13.75,50.73,12.73 11.84,50.66,12.45 9.86,50.70,12.24 7.77,50.61,11.89 5.79,50.62,11.51 3.76,50.52,11.12 0.07,50.55,10.35"/>
        <lane id="66_1" index="1" speed="13.89" length="133.92" shape="118.23,3.47,3.30 116.04,5.46,4.12 114.46,6.68,4.69 113.00,7.97,5.27 111.46,9.17,5.84 109.99,10.44,6.45 108.47,11.64,6.98 106.97,12.95,7.62 105.44,14.12,8.16 104.03,15.39,8.79 102.43,16.64,9.33 100.94,17.93,9.99 99.45,19.06,10.51 98.04,20.38,11.17 96.39,21.63,11.67 94.93,22.90,12.31 93.41,24.07,12.87 91.87,25.40,13.49 90.31,26.61,14.05 88.68,28.01,14.67 86.89,29.23,15.10 85.23,30.48,15.62 83.40,31.63,15.99 81.65,32.81,16.47 79.89,33.80,16.76 78.18,34.95,17.12 76.17,35.98,17.32 74.37,36.94,17.62 72.46,37.87,17.74 70.60,38.79,17.95 68.68,39.61,17.98 66.80,40.51,18.10 64.74,41.24,18.09 62.81,42.01,18.15 60.80,42.66,18.02 58.82,43.33,18.00 56.82,43.89,17.81 54.82,44.54,17.70 52.73,44.99,17.41 50.75,45.52,17.26 48.61,45.90,16.95 46.58,46.33,16.72 44.50,46.62,16.44 42.47,46.98,16.26 40.30,47.18,15.94 38.28,47.45,15.75 36.15,47.56,15.46 34.11,47.74,15.26 31.92,47.77,14.94 29.84,47.85,14.76 27.72,47.76,14.44 25.75,47.78,14.25 23.74,47.67,13.94 21.80,47.72,13.75 19.74,47.61,13.44 17.83,47.60,13.27 15.80,47.55,12.95 13.82,47.53,12.73 11.87,47.46,12.45 9.90,47.50,12.24 7.83,47.41,11.89 5.86,47.42,11.51 3.83,47.32,11.12 0.04,47.35,10.35"/>
        <lane id="66_2" index="2" speed="13.89" length="133.92" shape="116.08,1.10,3.30 113.98,3.01,4.12 112.42,4.21,4.69 110.96,5.51,5.27 109.43,6.70,5.84 107.95,7.97,6.45 106.42,9.18,6.98 104.95,10.47,7.62 103.40,11.66,8.16 101.98,12.93,8.79 100.40,14.17,9.33 98.92,15.44,9.99 97.38,16.61,10.51 95.97,17.94,11.17 94.37,19.15,11.67 92.91,20.42,12.31 91.39,21.59,12.87 89.84,22.92,13.49 88.29,24.13,14.05 86.73,25.47,14.67 85.02,26.63,15.10 83.41,27.85,15.62 81.65,28.95,15.99 79.97,30.08,16.47 78.21,31.07,16.76 76.55,32.19,17.12 74.68,33.15,17.32 72.92,34.09,17.62 71.06,34.99,17.74 69.26,35.88,17.95 67.36,36.69,17.98 65.57,37.55,18.10 63.61,38.24,18.09 61.73,38.99,18.15 59.80,39.62,18.02 57.87,40.28,18.00 55.90,40.83,17.81 53.99,41.44,17.70 51.98,41.88,17.41 50.05,42.39,17.26 48.00,42.76,16.95 46.03,43.18,16.72 44.00,43.46,16.44 42.05,43.80,16.26 39.94,44.00,15.94 37.98,44.26,15.75 35.93,44.36,15.46 33.94,44.54,15.26 31.84,44.57,14.94 29.84,44.65,14.76 27.78,44.56,14.44 25.83,44.58,14.25 23.79,44.47,13.94 21.85,44.51,13.75 19.82,44.41,13.44 17.88,44.40,13.27 15.86,44.35,12.95 13.89,44.33,12.73 11.89,44.26,12.45 9.94,44.30,12.24 7.89,44.21,11.89 5.93,44.22,11.51 3.89,44.12,11.12 0.01,44.15,10.35"/>
    </edge>

    <junction id="1" type="dead_end" x="115.08" y="0.00" z="3.30" incLanes="" intLanes="" shape="115.00,-0.09,3.30 121.46,7.02,3.30"/>
    <junction id="66" type="dead_end" x="0.00" y="42.44" z="10.35" incLanes="66_0 66_1 66_2" intLanes="" shape="0.08,52.15,10.35 0.00,42.55,10.35"/>

</net>
