<?xml version="1.0" encoding="UTF-8"?>

<!-- generated on Mon May 20 17:25:17 2019 by Eclipse SUMO netconvert Version UNKNOWN
<configuration xmlns:xsi="http://www.w3.org/2001/XMLSchema-instance" xsi:noNamespaceSchemaLocation="http://sumo.dlr.de/xsd/netconvertConfiguration.xsd">

    <input>
        <node-files value="generated_cloud.nod.xml"/>
        <edge-files value="generated_cloud.edg.xml"/>
    </input>

    <output>
        <output-file value="generated_cloud.net.xml"/>
    </output>

</configuration>
-->

<net version="1.1" junctionCornerDetail="5" limitTurnSpeed="5.50" xmlns:xsi="http://www.w3.org/2001/XMLSchema-instance" xsi:noNamespaceSchemaLocation="http://sumo.dlr.de/xsd/net_file.xsd">

    <location netOffset="359.25,-736.42" convBoundary="0.00,0.00,1.17,44.31" origBoundary="-359.25,736.42,-358.08,780.73" projParameter="!"/>

    <edge id="10000" from="1" to="141" priority="-1" shape="0.01,0.00 0.01,0.43 0.00,0.90 0.03,1.36 0.09,1.82 0.15,2.15 0.19,2.36 0.25,2.82 0.28,3.28 0.30,3.67 0.31,3.98 0.32,4.52 0.33,4.82 0.35,5.40 0.40,5.67 0.44,5.89 0.48,6.42 0.49,6.70 0.49,6.91 0.52,7.29 0.53,7.65 0.54,8.05 0.57,8.43 0.60,8.79 0.64,9.07 0.65,9.37 0.70,9.89 0.75,10.21 0.77,10.71 0.80,11.00 0.81,11.60 0.82,12.00 0.82,12.57 0.82,12.99 0.85,13.16 0.86,13.62 0.89,14.24 0.89,14.63 0.89,14.97 0.91,15.07 0.92,15.38 0.91,15.98 0.92,16.28 0.94,16.67 0.96,17.40 0.98,17.68 0.97,18.14 0.98,18.62 0.98,18.99 0.98,19.21 0.98,19.51 0.99,20.01 1.01,20.31 1.03,20.71 1.03,21.12 1.04,21.52 1.04,21.92 1.04,22.16 1.05,22.44 1.06,22.71 1.07,22.92 1.07,23.33 1.07,23.59 1.07,23.92 1.07,24.19 1.07,24.65 1.07,24.80 1.08,24.92 1.07,25.41 1.07,25.53 1.07,25.82 1.08,26.02 1.08,26.26 1.09,26.82 1.10,27.22 1.10,27.63 1.10,27.76 1.11,28.38 1.10,28.64 1.09,28.89 1.10,29.62 1.10,29.83 1.12,29.96 1.13,30.60 1.13,31.01 1.13,31.29 1.13,31.72 1.13,31.86 1.13,32.01 1.13,32.37 1.14,32.73 1.13,33.47 1.13,33.70 1.15,33.92 1.15,34.12 1.15,34.55 1.16,34.66 1.17,35.21 1.17,35.37 1.16,35.53 1.16,36.09 1.17,36.43 1.17,36.81 1.17,36.97 1.17,37.48 1.17,37.32 1.17,37.84 1.17,38.39 1.17,39.01 1.17,39.24 1.17,39.42 1.16,39.61 1.17,39.97 1.17,40.15 1.17,40.71 1.17,41.09 1.17,41.27 1.17,41.49 1.17,41.89 1.17,42.30 1.17,42.80 1.17,43.00 1.17,43.22 1.17,43.61 1.17,43.80 1.17,44.11 1.17,44.31">
        <lane id="10000_0" index="0" speed="13.89" length="56.59" shape="8.01,0.07 8.00,0.51 8.01,0.65 8.11,1.19 8.21,2.04 8.27,2.87 8.29,3.35 8.31,3.72 8.32,4.38 8.32,4.58 8.32,4.69 8.28,4.28 8.40,5.11 8.46,5.91 8.48,6.55 8.50,6.83 8.53,7.40 8.54,7.75 8.56,7.93 8.61,8.38 8.63,8.78 8.65,9.00 8.71,9.47 8.75,10.13 8.80,10.67 8.81,11.50 8.82,11.91 8.82,12.52 8.83,12.65 8.86,13.27 8.89,14.00 8.88,14.66 8.89,14.45 8.92,15.38 8.91,16.04 8.91,15.92 8.94,16.37 8.95,17.07 8.98,17.50 8.97,18.19 8.98,18.54 8.98,18.96 8.98,19.21 8.98,19.38 8.98,19.69 9.00,19.90 9.03,20.58 9.03,21.04 9.03,21.38 9.04,21.85 9.04,22.07 9.04,22.22 9.05,22.40 9.06,22.78 9.07,23.32 9.07,23.54 9.07,23.84 9.07,24.17 9.07,24.59 9.08,24.94 9.07,25.45 9.07,25.70 9.08,25.89 9.08,26.15 9.09,26.68 9.10,27.13 9.10,27.62 9.11,28.42 9.09,28.94 9.09,28.84 9.10,29.49 9.11,29.73 9.13,30.54 9.13,30.94 9.13,31.29 9.13,31.80 9.12,31.70 9.13,31.91 9.13,32.29 9.14,32.73 9.13,33.53 9.12,33.32 9.15,33.66 9.15,34.21 9.16,34.42 9.17,35.14 9.16,35.59 9.16,36.04 9.17,36.36 9.17,36.89 2.33,44.34"/>
        <lane id="10000_1" index="1" speed="13.89" length="56.59" shape="4.81,0.04 4.80,0.48 4.80,0.75 4.81,0.89 4.84,1.10 4.87,1.25 4.94,1.66 5.03,2.35 5.08,3.04 5.09,3.48 5.11,3.82 5.12,4.43 5.12,4.68 5.13,4.97 5.13,4.83 5.21,5.42 5.27,6.11 5.29,6.57 5.28,6.69 5.31,7.02 5.33,7.50 5.33,7.82 5.35,8.02 5.37,8.28 5.42,8.66 5.44,9.02 5.47,9.36 5.53,9.77 5.56,10.36 5.60,10.80 5.61,11.54 5.62,11.94 5.62,12.54 5.62,12.79 5.64,12.85 5.66,13.41 5.69,14.10 5.69,14.64 5.69,14.78 5.70,14.70 5.72,15.38 5.71,16.02 5.71,16.07 5.74,16.49 5.75,17.20 5.78,17.57 5.77,18.17 5.78,18.57 5.78,18.97 5.78,19.21 5.78,19.43 5.79,19.82 5.81,20.06 5.83,20.63 5.83,21.07 5.83,21.43 5.84,21.88 5.84,22.10 5.85,22.31 5.85,22.53 5.87,22.84 5.87,23.32 5.87,23.56 5.87,23.88 5.87,24.18 5.87,24.66 5.87,24.68 5.88,24.93 5.87,25.49 5.87,25.48 5.87,25.75 5.88,25.94 5.88,26.20 5.89,26.74 5.90,27.16 5.90,27.60 5.90,27.67 5.91,28.40 5.89,28.82 5.89,28.86 5.90,29.55 5.90,29.63 5.92,29.82 5.93,30.57 5.93,30.97 5.93,31.29 5.93,31.77 5.92,31.76 5.93,31.95 5.93,32.33 5.94,32.73 5.93,33.51 5.93,33.47 5.95,33.77 5.95,34.17 5.94,34.43 5.96,34.52 5.97,35.17 5.97,35.46 5.96,35.57 5.96,36.06 5.97,36.39 5.97,36.81 5.97,36.92 1.24,42.28 0.96,32.52 5.97,37.84 5.97,38.39 5.97,38.97 5.97,39.24 5.96,39.56 5.96,39.61 5.97,39.87 5.97,40.11 5.97,40.71 5.97,41.15 5.97,41.36 5.97,41.44 5.97,41.85 5.97,42.33 5.97,42.80 5.97,42.92 5.97,43.22 5.97,43.61 5.97,43.87 5.97,44.12 6.00,44.43"/>
        <lane id="10000_2" index="2" speed="13.89" length="56.59" shape="1.61,0.01 1.60,0.44 1.60,0.85 1.63,1.20 1.67,1.58 1.72,1.85 1.77,2.13 1.84,2.66 1.88,3.20 1.89,3.61 1.91,3.93 1.92,4.49 1.93,4.77 1.94,5.25 1.98,5.39 2.03,5.73 2.07,6.32 2.09,6.65 2.09,6.84 2.11,7.20 2.13,7.60 2.14,7.97 2.16,8.29 2.19,8.62 2.23,8.93 2.25,9.25 2.29,9.71 2.34,10.06 2.37,10.59 2.40,10.94 2.41,11.58 2.42,11.98 2.42,12.56 2.42,12.92 2.44,13.06 2.46,13.55 2.49,14.19 2.49,14.63 2.49,14.90 2.51,14.94 2.52,15.38 2.51,15.99 2.51,16.21 2.54,16.61 2.56,17.33 2.58,17.64 2.57,18.15 2.58,18.60 2.58,18.98 2.58,19.21 2.58,19.49 2.59,19.95 2.61,20.23 2.63,20.68 2.63,21.10 2.63,21.49 2.64,21.91 2.64,22.14 2.65,22.39 2.65,22.65 2.67,22.89 2.67,23.33 2.67,23.58 2.67,23.91 2.67,24.19 2.67,24.65 2.67,24.76 2.68,24.92 2.67,25.44 2.67,25.51 2.67,25.79 2.68,25.99 2.68,26.24 2.69,26.79 2.70,27.20 2.70,27.62 2.70,27.73 2.71,28.39 2.70,28.70 2.69,28.88 2.70,29.60 2.70,29.76 2.72,29.91 2.73,30.59 2.73,31.00 2.73,31.29 2.73,31.73 2.73,31.83 2.73,31.99 2.73,32.36 2.74,32.73 2.73,33.48 2.73,33.62 2.75,33.87 2.75,34.14 2.75,34.51 2.76,34.61 2.77,35.20 2.77,35.40 2.76,35.54 2.76,36.08 2.77,36.41 2.77,36.81 2.77,36.96 1.20,39.08 1.10,35.72 2.77,37.84 2.77,38.39 2.77,38.99 2.77,39.24 2.77,39.47 2.76,39.61 2.77,39.93 2.77,40.14 2.77,40.71 2.77,41.11 2.77,41.30 2.77,41.47 2.77,41.88 2.77,42.31 2.77,42.80 2.77,42.98 2.77,43.22 2.77,43.61 2.77,43.82 2.77,44.12 2.77,44.35"/>
    </edge>

    <junction id="1" type="dead_end" x="0.01" y="0.00" incLanes="" intLanes="" shape="0.01,0.00 9.61,0.09"/>
    <junction id="141" type="dead_end" x="1.17" y="44.31" incLanes="10000_0 10000_1 10000_2" intLanes="" shape="10.76,44.55 1.17,44.31"/>

</net>
