<?xml version="1.0"?>
<nodes><node id="1" x="-170.869995" y="65.750000" type="priority"/><node id="2" x="4.460000" y="64.610001" type="priority"/><node id="3" x="24.190001" y="195.919998" type="priority"/><node id="4" x="19.639999" y="76.000000" type="priority"/><node id="5" x="18.500000" y="51.330002" type="priority"/><node id="6" x="13.190000" y="-78.080002" type="priority"/><node id="7" x="31.780001" y="63.470001" type="priority"/><node id="8" x="198.000000" y="61.570000" type="priority"/></nodes>
