<?xml version="1.0"?>
<edges><edge id="10000" from="1" to="21" numLanes="2" width="3.75" spreadType="right" shape="-359.243011,736.424011 -359.098999,738.575989 -358.928986,740.945007 -358.764008,743.119995 -358.649994,745.215027 -358.447998,747.427979 -358.406006,749.581970 -358.329010,751.804993 -358.295013,753.822021 -358.269989,755.934998 -358.217010,757.939026 -358.184998,760.013000 -358.178986,762.239990 -358.141998,764.807007 -358.126007,767.026978 -358.113007,769.153015 -358.085999,771.633972 -358.079010,773.901001 -358.089996,776.039001 -358.079010,778.317017 -358.085999,780.538025"/></edges>
