<?xml version="1.0"?>
<nodes><node id="1" x="-261.190002" y="65.949997" type="priority"/><node id="14" x="111.040001" y="59.099998" type="priority"/><node id="15" x="186.229996" y="60.919998" type="priority"/><node id="26" x="259.609985" y="-14.920000" type="priority"/><node id="27" x="332.339996" y="58.320000" type="priority"/><node id="28" x="335.380005" y="-32.599998" type="priority"/><node id="29" x="335.380005" y="-32.599998" type="priority"/><node id="30" x="332.339996" y="58.320000" type="priority"/><node id="31" x="111.040001" y="59.099998" type="priority"/><node id="46" x="-261.190002" y="65.949997" type="priority"/><node id="47" x="328.119995" y="163.029999" type="priority"/><node id="48" x="332.339996" y="58.320000" type="priority"/><node id="49" x="332.339996" y="58.320000" type="priority"/><node id="50" x="328.119995" y="163.029999" type="priority"/><node id="51" x="111.040001" y="59.099998" type="priority"/><node id="52" x="186.229996" y="60.919998" type="priority"/><node id="53" x="186.229996" y="60.919998" type="priority"/><node id="54" x="111.040001" y="59.099998" type="priority"/><node id="55" x="186.229996" y="60.919998" type="priority"/><node id="56" x="332.339996" y="58.320000" type="priority"/><node id="57" x="332.339996" y="58.320000" type="priority"/><node id="58" x="186.229996" y="60.919998" type="priority"/><node id="59" x="469.510010" y="51.939999" type="priority"/><node id="60" x="332.339996" y="58.320000" type="priority"/><node id="61" x="332.339996" y="58.320000" type="priority"/><node id="62" x="469.510010" y="51.939999" type="priority"/><node id="63" x="186.229996" y="60.919998" type="priority"/><node id="64" x="99.769997" y="110.889999" type="priority"/></nodes>
