<?xml version="1.0"?>
<edges><edge id="10000" from="1" to="15" numLanes="3" shape="1.900000,0.630000 9.410000,3.430000 16.980000,6.030000 25.980000,7.470000 34.020000,7.230000 58.490002,2.650000 78.779999,0.000000 89.919998,0.570000 99.889999,1.700000 115.830002,4.400000 131.759995,7.810000 143.699997,10.560000 157.630005,13.700000 165.589996,15.350000"/></edges>
