<?xml version="1.0"?>
<nodes><node id="1" x="1.900000" y="0.630000" type="priority"/><node id="15" x="171.179993" y="16.400000" type="priority"/></nodes>
