<?xml version="1.0"?>
<edges><edge id="10000" from="1" to="8" numLanes="1" width="3.16" spreadType="right" shape="45.040001,75.089996 49.419998,74.570000 51.230000,74.230003 52.980000,73.849998 55.230000,73.150002 57.639999,71.730003 59.520000,70.250000 62.330002,66.379997"/><edge id="10001" from="9" to="10" numLanes="1" width="3.16" spreadType="right" shape="-16.990000,76.059998 45.040001,75.089996"/><edge id="10002" from="11" to="12" numLanes="1" width="3.16" spreadType="right" shape="62.330002,66.379997 63.180000,19.230000"/></edges>
