<?xml version="1.0"?>
<edges><edge id="10000" from="1" to="14" numLanes="2" width="3.75" spreadType="right" shape="-261.190002,65.949997 -221.690002,60.709999 -212.089996,59.380001 -202.179993,58.740002 -174.119995,60.720001 -154.270004,63.459999 -133.179993,65.720001 -115.169998,67.110001 -107.940002,66.889999 -97.930000,65.790001 -80.260002,63.560001 -60.700001,61.619999 -39.029999,60.450001 111.040001,59.099998"/><edge id="10001" from="15" to="26" numLanes="2" width="3.75" spreadType="right" shape="186.229996,60.919998 200.789993,24.570000 202.779999,21.059999 205.000000,17.870001 207.259995,15.300000 210.080002,12.880000 213.940002,10.080000 217.139999,7.900000 221.509995,5.310000 225.649994,2.940000 229.429993,0.950000 259.609985,-14.920000"/><edge id="10002" from="27" to="28" numLanes="2" width="3.75" spreadType="right" shape="332.339996,58.320000 335.380005,-32.599998"/><edge id="10003" from="29" to="30" numLanes="2" width="3.75" spreadType="right" shape="335.380005,-32.599998 332.339996,58.320000"/><edge id="10004" from="31" to="46" numLanes="2" width="3.75" spreadType="right" shape="111.040001,59.099998 -27.520000,60.490002 -41.419998,60.549999 -62.500000,61.820000 -80.040001,63.599998 -95.400002,65.419998 -104.389999,66.580002 -112.930000,67.110001 -123.099998,66.459999 -133.639999,65.610001 -154.979996,63.470001 -174.410004,60.700001 -202.119995,58.740002 -212.210007,59.430000 -222.360001,60.779999 -261.190002,65.949997"/><edge id="10005" from="47" to="48" numLanes="2" width="3.75" spreadType="right" shape="328.119995,163.029999 332.339996,58.320000"/><edge id="10006" from="49" to="50" numLanes="2" width="3.75" spreadType="right" shape="332.339996,58.320000 328.119995,163.029999"/><edge id="10007" from="51" to="52" numLanes="2" width="3.75" spreadType="right" shape="111.040001,59.099998 186.229996,60.919998"/><edge id="10008" from="53" to="54" numLanes="2" width="3.75" spreadType="right" shape="186.229996,60.919998 111.040001,59.099998"/><edge id="10009" from="55" to="56" numLanes="2" width="3.75" spreadType="right" shape="186.229996,60.919998 332.339996,58.320000"/><edge id="10010" from="57" to="58" numLanes="2" width="3.75" spreadType="right" shape="332.339996,58.320000 186.229996,60.919998"/><edge id="10011" from="59" to="60" numLanes="2" width="3.75" spreadType="right" shape="469.510010,51.939999 332.339996,58.320000"/><edge id="10012" from="61" to="62" numLanes="2" width="3.75" spreadType="right" shape="332.339996,58.320000 469.510010,51.939999"/><edge id="10013" from="63" to="64" numLanes="2" width="3.75" spreadType="right" shape="186.229996,60.919998 99.769997,110.889999"/></edges>
