<?xml version="1.0"?>
<nodes><node id="1" x="-359.243011" y="736.424011" type="priority"/><node id="21" x="-358.085999" y="780.538025" type="priority"/></nodes>
