<?xml version="1.0"?>
<nodes><node id="1" x="26.830000" y="103.760002" type="priority"/><node id="2" x="26.830000" y="73.250000" type="priority"/><node id="3" x="26.830000" y="73.250000" type="priority"/><node id="4" x="25.969999" y="43.889999" type="priority"/><node id="5" x="-11.090000" y="74.110001" type="priority"/><node id="6" x="26.830000" y="73.250000" type="priority"/><node id="7" x="26.830000" y="73.250000" type="priority"/><node id="8" x="66.750000" y="72.400002" type="priority"/></nodes>
