<?xml version="1.0" encoding="UTF-8"?>

<!-- generated on Mon Apr 15 13:22:52 2019 by Eclipse SUMO netconvert Version UNKNOWN
<configuration xmlns:xsi="http://www.w3.org/2001/XMLSchema-instance" xsi:noNamespaceSchemaLocation="http://sumo.dlr.de/xsd/netconvertConfiguration.xsd">

    <input>
        <node-files value="generated.nod.xml"/>
        <edge-files value="generated.edg.xml"/>
    </input>

    <output>
        <output-file value="generated_noz.net.xml"/>
    </output>

</configuration>
-->

<net version="1.1" junctionCornerDetail="5" limitTurnSpeed="5.50" xmlns:xsi="http://www.w3.org/2001/XMLSchema-instance" xsi:noNamespaceSchemaLocation="http://sumo.dlr.de/xsd/net_file.xsd">

    <location netOffset="-27.83,-6.95" convBoundary="0.00,0.00,115.04,43.01" origBoundary="27.83,6.95,142.87,49.96" projParameter="!"/>

    <edge id="66" from="1" to="66" priority="-1" shape="114.43,0.51 112.93,1.75 111.42,3.00 109.92,4.24 108.42,5.48 106.91,6.73 105.41,7.97 103.91,9.21 102.41,10.46 100.90,11.70 99.40,12.94 97.90,14.19 96.39,15.43 94.89,16.67 93.39,17.92 91.89,19.16 90.38,20.40 88.83,21.68 87.28,22.94 85.70,24.16 84.09,25.35 82.46,26.51 80.80,27.63 79.12,28.71 77.41,29.76 75.69,30.77 73.94,31.74 72.17,32.67 70.38,33.57 68.58,34.43 66.75,35.25 64.91,36.03 63.05,36.77 61.18,37.47 59.29,38.13 57.39,38.74 55.48,39.32 53.55,39.86 51.61,40.35 49.66,40.81 47.71,41.22 45.74,41.59 43.77,41.91 41.79,42.20 39.80,42.44 37.81,42.64 35.82,42.80 33.82,42.91 31.82,42.98 29.82,43.01 27.82,42.99 25.84,42.96 23.85,42.92 21.86,42.88 19.87,42.85 17.88,42.81 15.90,42.77 13.91,42.74 11.92,42.70 9.93,42.66 7.95,42.63 5.96,42.59 3.97,42.55 1.98,42.52">
        <lane id="66_0" index="0" speed="13.89" length="131.23" shape="120.14,6.17 118.03,7.91 116.52,9.16 115.02,10.41 113.52,11.64 112.01,12.89 110.51,14.14 109.02,15.37 107.51,16.62 105.99,17.87 104.51,19.10 103.00,20.35 101.48,21.60 100.00,22.83 98.50,24.08 96.98,25.33 95.47,26.58 93.90,27.87 92.25,29.21 90.52,30.54 88.79,31.83 87.02,33.09 85.20,34.31 83.38,35.48 81.53,36.62 79.65,37.72 77.74,38.78 75.83,39.78 73.90,40.75 71.94,41.69 69.95,42.58 67.95,43.43 65.93,44.23 63.90,44.99 61.83,45.72 59.78,46.38 57.72,47.00 55.61,47.59 53.51,48.12 51.40,48.62 49.27,49.07 47.12,49.47 44.99,49.82 42.85,50.13 40.68,50.39 38.53,50.61 36.36,50.78 34.18,50.90 32.02,50.98 29.84,51.01 27.72,50.99 25.70,50.96 23.69,50.92 21.72,50.88 19.73,50.85 17.72,50.81 15.76,50.77 13.77,50.74 11.76,50.70 9.79,50.66 7.81,50.63 5.80,50.59 3.83,50.55 -0.12,50.49"/>
        <lane id="66_1" index="1" speed="13.89" length="131.23" shape="118.10,3.70 115.99,5.45 114.48,6.70 112.98,7.94 111.48,9.18 109.97,10.43 108.47,11.67 106.98,12.90 105.47,14.16 103.95,15.40 102.47,16.63 100.96,17.89 99.44,19.13 97.96,20.36 96.46,21.61 94.94,22.86 93.43,24.11 91.87,25.39 90.26,26.70 88.59,27.99 86.91,29.24 85.19,30.46 83.44,31.64 81.67,32.77 79.88,33.87 78.07,34.94 76.22,35.96 74.36,36.94 72.49,37.88 70.60,38.79 68.67,39.65 66.73,40.47 64.78,41.25 62.81,41.98 60.82,42.68 58.82,43.32 56.82,43.93 54.78,44.50 52.75,45.01 50.71,45.49 48.65,45.93 46.57,46.32 44.50,46.65 42.43,46.96 40.33,47.21 38.24,47.42 36.14,47.59 34.04,47.71 31.94,47.78 29.83,47.81 27.76,47.79 25.76,47.76 23.75,47.72 21.78,47.68 19.79,47.65 17.78,47.61 15.82,47.57 13.83,47.54 11.82,47.50 9.85,47.46 7.87,47.43 5.86,47.39 3.89,47.35 -0.07,47.29"/>
        <lane id="66_2" index="2" speed="13.89" length="131.23" shape="116.06,1.24 113.95,2.98 112.44,4.23 110.94,5.47 109.44,6.71 107.93,7.96 106.43,9.20 104.93,10.44 103.43,11.69 101.92,12.93 100.42,14.17 98.92,15.42 97.41,16.66 95.91,17.90 94.41,19.15 92.91,20.39 91.40,21.64 89.84,22.92 88.27,24.19 86.66,25.44 85.03,26.65 83.37,27.83 81.68,28.97 79.97,30.06 78.23,31.13 76.48,32.16 74.70,33.15 72.90,34.09 71.08,35.01 69.25,35.88 67.39,36.72 65.52,37.51 63.63,38.26 61.72,38.97 59.80,39.65 57.87,40.27 55.93,40.86 53.96,41.41 51.99,41.90 50.01,42.37 48.02,42.79 46.02,43.17 44.01,43.49 42.00,43.79 39.98,44.03 37.95,44.23 35.93,44.40 33.89,44.51 31.86,44.58 29.82,44.61 27.80,44.59 25.81,44.56 23.82,44.52 21.83,44.48 19.84,44.45 17.85,44.41 15.87,44.37 13.88,44.34 11.89,44.30 9.90,44.26 7.92,44.23 5.93,44.19 3.94,44.15 -0.02,44.09"/>
    </edge>

    <junction id="1" type="dead_end" x="115.04" y="0.00" incLanes="" intLanes="" shape="115.04,0.00 121.16,7.40"/>
    <junction id="66" type="dead_end" x="0.00" y="42.48" incLanes="66_0 66_1 66_2" intLanes="" shape="-0.14,52.09 -0.00,42.49"/>

</net>
