<?xml version="1.0" encoding="UTF-8"?>

<!-- generated on Thu Apr 11 10:24:56 2019 by Eclipse SUMO netconvert Version UNKNOWN
<configuration xmlns:xsi="http://www.w3.org/2001/XMLSchema-instance" xsi:noNamespaceSchemaLocation="http://sumo.dlr.de/xsd/netconvertConfiguration.xsd">

    <input>
        <node-files value="generated.nod.xml"/>
        <edge-files value="generated.edg.xml"/>
    </input>

    <output>
        <output-file value="generated3.net.xml"/>
    </output>

</configuration>
-->

<net version="1.1" junctionCornerDetail="5" limitTurnSpeed="5.50" xmlns:xsi="http://www.w3.org/2001/XMLSchema-instance" xsi:noNamespaceSchemaLocation="http://sumo.dlr.de/xsd/net_file.xsd">

    <location netOffset="-27.83,-6.95" convBoundary="0.00,0.00,115.04,43.01" origBoundary="27.83,6.95,142.87,49.96" projParameter="!"/>

    <edge id="66" from="1" to="66" priority="-1" shape="114.43,0.51,3.52 112.93,1.75,4.10 111.42,3.00,4.69 109.92,4.24,5.28 108.42,5.48,5.86 106.91,6.73,6.45 105.41,7.97,7.03 103.91,9.21,7.62 102.41,10.46,8.20 100.90,11.70,8.79 99.40,12.94,9.37 97.90,14.19,9.96 96.39,15.43,10.55 94.89,16.67,11.13 93.39,17.92,11.72 91.89,19.16,12.30 90.38,20.40,12.89 88.83,21.68,13.49 87.28,22.94,14.08 85.70,24.16,14.63 84.09,25.35,15.14 82.46,26.51,15.61 80.80,27.63,16.04 79.12,28.71,16.42 77.41,29.76,16.77 75.69,30.77,17.08 73.94,31.74,17.35 72.17,32.67,17.58 70.38,33.57,17.77 68.58,34.43,17.92 66.75,35.25,18.02 64.91,36.03,18.09 63.05,36.77,18.12 61.18,37.47,18.11 59.29,38.13,18.06 57.39,38.74,17.97 55.48,39.32,17.84 53.55,39.86,17.66 51.61,40.35,17.45 49.66,40.81,17.21 47.71,41.22,16.96 45.74,41.59,16.71 43.77,41.91,16.46 41.79,42.20,16.21 39.80,42.44,15.96 37.81,42.64,15.71 35.82,42.80,15.46 33.82,42.91,15.21 31.82,42.98,14.96 29.82,43.01,14.71 27.82,42.99,14.46 25.84,42.96,14.21 23.85,42.92,13.96 21.86,42.88,13.71 19.87,42.85,13.46 17.88,42.81,13.22 15.90,42.77,12.97 13.91,42.74,12.72 11.92,42.70,12.47 9.93,42.66,12.22 7.95,42.63,11.76 5.96,42.59,11.30 3.97,42.55,10.84 1.98,42.52,10.83">
        <lane id="66_0" index="0" speed="13.89" length="133.69" shape="120.14,6.17,3.28 118.03,7.91,4.10 116.52,9.16,4.69 115.02,10.41,5.28 113.52,11.64,5.86 112.01,12.89,6.45 110.51,14.14,7.03 109.02,15.37,7.62 107.51,16.62,8.20 105.99,17.87,8.79 104.51,19.10,9.37 103.00,20.35,9.96 101.48,21.60,10.55 100.00,22.83,11.13 98.50,24.08,11.72 96.98,25.33,12.30 95.47,26.58,12.89 93.90,27.87,13.49 92.25,29.21,14.08 90.52,30.54,14.63 88.79,31.83,15.14 87.02,33.09,15.61 85.20,34.31,16.04 83.38,35.48,16.42 81.53,36.62,16.77 79.65,37.72,17.08 77.74,38.78,17.35 75.83,39.78,17.58 73.90,40.75,17.77 71.94,41.69,17.92 69.95,42.58,18.02 67.95,43.43,18.09 65.93,44.23,18.12 63.90,44.99,18.11 61.83,45.72,18.06 59.78,46.38,17.97 57.72,47.00,17.84 55.61,47.59,17.66 53.51,48.12,17.45 51.40,48.62,17.21 49.27,49.07,16.96 47.12,49.47,16.71 44.99,49.82,16.46 42.85,50.13,16.21 40.68,50.39,15.96 38.53,50.61,15.71 36.36,50.78,15.46 34.18,50.90,15.21 32.02,50.98,14.96 29.84,51.01,14.71 27.72,50.99,14.46 25.70,50.96,14.21 23.69,50.92,13.96 21.72,50.88,13.71 19.73,50.85,13.46 17.72,50.81,13.22 15.76,50.77,12.97 13.77,50.74,12.72 11.76,50.70,12.47 9.79,50.66,12.22 7.81,50.63,11.76 5.80,50.59,11.30 3.83,50.55,10.84 -0.12,50.49,10.38"/>
        <lane id="66_1" index="1" speed="13.89" length="133.69" shape="118.10,3.70,3.28 115.99,5.45,4.10 114.48,6.70,4.69 112.98,7.94,5.28 111.48,9.18,5.86 109.97,10.43,6.45 108.47,11.67,7.03 106.98,12.90,7.62 105.47,14.16,8.20 103.95,15.40,8.79 102.47,16.63,9.37 100.96,17.89,9.96 99.44,19.13,10.55 97.96,20.36,11.13 96.46,21.61,11.72 94.94,22.86,12.30 93.43,24.11,12.89 91.87,25.39,13.49 90.26,26.70,14.08 88.59,27.99,14.63 86.91,29.24,15.14 85.19,30.46,15.61 83.44,31.64,16.04 81.67,32.77,16.42 79.88,33.87,16.77 78.07,34.94,17.08 76.22,35.96,17.35 74.36,36.94,17.58 72.49,37.88,17.77 70.60,38.79,17.92 68.67,39.65,18.02 66.73,40.47,18.09 64.78,41.25,18.12 62.81,41.98,18.11 60.82,42.68,18.06 58.82,43.32,17.97 56.82,43.93,17.84 54.78,44.50,17.66 52.75,45.01,17.45 50.71,45.49,17.21 48.65,45.93,16.96 46.57,46.32,16.71 44.50,46.65,16.46 42.43,46.96,16.21 40.33,47.21,15.96 38.24,47.42,15.71 36.14,47.59,15.46 34.04,47.71,15.21 31.94,47.78,14.96 29.83,47.81,14.71 27.76,47.79,14.46 25.76,47.76,14.21 23.75,47.72,13.96 21.78,47.68,13.71 19.79,47.65,13.46 17.78,47.61,13.22 15.82,47.57,12.97 13.83,47.54,12.72 11.82,47.50,12.47 9.85,47.46,12.22 7.87,47.43,11.76 5.86,47.39,11.30 3.89,47.35,10.84 -0.07,47.29,10.38"/>
        <lane id="66_2" index="2" speed="13.89" length="133.69" shape="116.06,1.24,3.28 113.95,2.98,4.10 112.44,4.23,4.69 110.94,5.47,5.28 109.44,6.71,5.86 107.93,7.96,6.45 106.43,9.20,7.03 104.93,10.44,7.62 103.43,11.69,8.20 101.92,12.93,8.79 100.42,14.17,9.37 98.92,15.42,9.96 97.41,16.66,10.55 95.91,17.90,11.13 94.41,19.15,11.72 92.91,20.39,12.30 91.40,21.64,12.89 89.84,22.92,13.49 88.27,24.19,14.08 86.66,25.44,14.63 85.03,26.65,15.14 83.37,27.83,15.61 81.68,28.97,16.04 79.97,30.06,16.42 78.23,31.13,16.77 76.48,32.16,17.08 74.70,33.15,17.35 72.90,34.09,17.58 71.08,35.01,17.77 69.25,35.88,17.92 67.39,36.72,18.02 65.52,37.51,18.09 63.63,38.26,18.12 61.72,38.97,18.11 59.80,39.65,18.06 57.87,40.27,17.97 55.93,40.86,17.84 53.96,41.41,17.66 51.99,41.90,17.45 50.01,42.37,17.21 48.02,42.79,16.96 46.02,43.17,16.71 44.01,43.49,16.46 42.00,43.79,16.21 39.98,44.03,15.96 37.95,44.23,15.71 35.93,44.40,15.46 33.89,44.51,15.21 31.86,44.58,14.96 29.82,44.61,14.71 27.80,44.59,14.46 25.81,44.56,14.21 23.82,44.52,13.96 21.83,44.48,13.71 19.84,44.45,13.46 17.85,44.41,13.22 15.87,44.37,12.97 13.88,44.34,12.72 11.89,44.30,12.47 9.90,44.26,12.22 7.92,44.23,11.76 5.93,44.19,11.30 3.94,44.15,10.84 -0.02,44.09,10.38"/>
    </edge>

    <junction id="1" type="dead_end" x="115.04" y="0.00" z="3.28" incLanes="" intLanes="" shape="115.04,0.00,3.28 121.16,7.40,3.28"/>
    <junction id="66" type="dead_end" x="0.00" y="42.48" z="10.38" incLanes="66_0 66_1 66_2" intLanes="" shape="-0.14,52.09,10.38 -0.00,42.49,10.38"/>

</net>
