<?xml version="1.0"?>
<nodes><node id="1" x="-358.079010" y="779.427002" type="priority"/><node id="141" x="-359.252014" y="737.322998" type="priority"/></nodes>
