<?xml version="1.0" encoding="UTF-8"?>

<!-- generated on Wed Apr 24 01:17:59 2019 by Eclipse SUMO netconvert Version UNKNOWN
<configuration xmlns:xsi="http://www.w3.org/2001/XMLSchema-instance" xsi:noNamespaceSchemaLocation="http://sumo.dlr.de/xsd/netconvertConfiguration.xsd">

    <input>
        <node-files value="generated.nod.xml"/>
        <edge-files value="generated.edg.xml"/>
    </input>

    <output>
        <output-file value="gxgenerated.net.xml"/>
    </output>

</configuration>
-->

<net version="1.1" junctionCornerDetail="5" limitTurnSpeed="5.50" xmlns:xsi="http://www.w3.org/2001/XMLSchema-instance" xsi:noNamespaceSchemaLocation="http://sumo.dlr.de/xsd/net_file.xsd">

    <location netOffset="-1.90,0.00" convBoundary="0.00,0.00,169.28,16.40" origBoundary="1.90,0.00,171.18,16.40" projParameter="!"/>

    <edge id="10000" from="1" to="87" priority="-1" shape="0.00,0.63 1.89,1.29 3.77,1.99 5.64,2.71 7.51,3.43 9.39,4.14 11.27,4.82 13.17,5.46 15.08,6.03 17.02,6.53 18.99,6.93 20.99,7.23 22.08,7.33 24.08,7.47 26.08,7.51 28.09,7.48 30.10,7.39 32.12,7.23 34.15,7.01 36.18,6.75 38.21,6.44 40.25,6.09 42.28,5.71 44.32,5.31 46.37,4.88 48.41,4.44 50.46,3.99 52.50,3.54 54.54,3.09 56.59,2.65 58.63,2.22 60.67,1.81 62.71,1.43 64.75,1.08 66.78,0.77 68.81,0.51 70.83,0.29 72.85,0.13 74.87,0.03 76.88,0.00 78.03,0.02 80.03,0.08 82.03,0.16 84.02,0.28 86.02,0.41 88.02,0.57 90.01,0.76 92.01,0.96 94.01,1.19 96.00,1.43 97.99,1.70 99.99,1.98 101.98,2.28 103.97,2.60 105.97,2.93 107.96,3.28 109.95,3.64 111.94,4.01 113.93,4.40 115.93,4.79 117.92,5.20 119.91,5.62 121.90,6.04 123.89,6.47 125.88,6.91 127.87,7.36 129.86,7.81 131.85,8.26 133.84,8.72 135.83,9.18 137.82,9.64 139.81,10.10 141.80,10.56 143.79,11.02 145.78,11.48 147.77,11.93 149.76,12.38 151.75,12.83 153.74,13.26 155.73,13.70 157.72,14.12 159.71,14.54 161.70,14.95 163.69,15.35 165.68,15.73 167.67,16.11">
        <lane id="10000_0" index="0" speed="13.89" length="171.91" shape="2.64,-6.92 4.60,-6.24 6.60,-5.49 8.51,-4.76 10.36,-4.04 12.16,-3.36 13.91,-2.73 15.59,-2.16 17.22,-1.68 18.82,-1.27 20.38,-0.95 22.02,-0.70 22.70,-0.65 24.44,-0.52 26.10,-0.49 27.85,-0.52 29.60,-0.59 31.37,-0.74 33.21,-0.93 35.07,-1.17 36.93,-1.46 38.84,-1.78 40.77,-2.15 42.73,-2.53 44.71,-2.94 46.71,-3.38 48.74,-3.82 50.78,-4.27 52.84,-4.73 54.93,-5.17 57.02,-5.62 59.15,-6.04 61.30,-6.44 63.47,-6.82 65.67,-7.15 67.87,-7.43 70.08,-7.67 72.34,-7.85 74.61,-7.97 76.85,-8.00 78.23,-7.98 80.31,-7.92 82.43,-7.83 84.52,-7.70 86.60,-7.57 88.72,-7.40 90.79,-7.20 92.87,-6.99 94.95,-6.76 97.02,-6.51 99.08,-6.23 101.14,-5.94 103.21,-5.62 105.26,-5.30 107.31,-4.96 109.36,-4.60 111.39,-4.23 113.44,-3.85 115.46,-3.45 117.50,-3.05 119.55,-2.63 121.56,-2.21 123.57,-1.78 125.60,-1.35 127.63,-0.90 129.63,-0.44 131.62,0.01 133.63,0.46 135.64,0.93 137.63,1.39 139.62,1.85 141.61,2.31 143.60,2.77 145.59,3.23 147.56,3.68 149.53,4.13 151.52,4.58 153.48,5.02 155.45,5.44 157.42,5.88 159.37,6.29 161.34,6.71 163.30,7.11 165.23,7.50 167.18,7.87 170.78,8.56"/>
        <lane id="10000_1" index="1" speed="13.89" length="171.91" shape="1.58,-3.90 3.52,-3.23 5.47,-2.50 7.36,-1.77 9.22,-1.05 11.05,-0.36 12.85,0.29 14.62,0.89 16.37,1.41 18.10,1.85 19.82,2.20 21.61,2.47 22.45,2.54 24.30,2.67 26.09,2.71 27.95,2.68 29.80,2.60 31.67,2.45 33.59,2.24 35.51,2.00 37.44,1.70 39.40,1.37 41.38,1.00 43.37,0.61 45.37,0.19 47.39,-0.25 49.43,-0.70 51.47,-1.15 53.52,-1.60 55.59,-2.04 57.66,-2.48 59.76,-2.90 61.86,-3.29 63.98,-3.66 66.11,-3.98 68.25,-4.26 70.38,-4.49 72.54,-4.66 74.72,-4.77 76.86,-4.80 78.15,-4.78 80.20,-4.72 82.27,-4.63 84.32,-4.51 86.37,-4.38 88.44,-4.21 90.48,-4.02 92.52,-3.81 94.57,-3.58 96.61,-3.33 98.65,-3.06 100.68,-2.77 102.72,-2.46 104.74,-2.14 106.78,-1.80 108.80,-1.45 110.82,-1.08 112.84,-0.70 114.85,-0.31 116.87,0.08 118.90,0.50 120.90,0.92 122.90,1.35 124.92,1.78 126.93,2.23 128.93,2.68 130.92,3.13 132.92,3.58 134.92,4.04 136.91,4.50 138.90,4.96 140.89,5.42 142.88,5.88 144.87,6.34 146.85,6.80 148.83,7.25 150.82,7.70 152.79,8.14 154.77,8.57 156.74,9.01 158.71,9.42 160.69,9.84 162.66,10.25 164.61,10.64 166.58,11.02 170.18,11.70"/>
        <lane id="10000_2" index="2" speed="13.89" length="171.91" shape="0.53,-0.88 2.43,-0.22 4.34,0.49 6.21,1.22 8.08,1.94 9.94,2.64 11.80,3.31 13.65,3.94 15.51,4.49 17.38,4.97 19.27,5.35 21.20,5.64 22.20,5.73 24.15,5.87 26.08,5.91 28.04,5.88 30.00,5.79 31.97,5.64 33.96,5.42 35.96,5.17 37.95,4.86 39.97,4.52 41.98,4.14 44.00,3.74 46.04,3.32 48.07,2.88 50.12,2.43 52.16,1.98 54.20,1.53 56.26,1.09 58.31,0.65 60.37,0.24 62.43,-0.14 64.49,-0.50 66.56,-0.81 68.62,-1.08 70.68,-1.30 72.75,-1.47 74.82,-1.57 76.87,-1.60 78.07,-1.58 80.09,-1.52 82.11,-1.44 84.12,-1.32 86.14,-1.19 88.16,-1.02 90.17,-0.83 92.18,-0.63 94.20,-0.40 96.20,-0.16 98.21,0.11 100.22,0.40 102.23,0.70 104.23,1.02 106.24,1.35 108.24,1.70 110.24,2.07 112.24,2.44 114.24,2.83 116.24,3.22 118.25,3.63 120.24,4.05 122.23,4.48 124.23,4.91 126.23,5.35 128.22,5.80 130.21,6.25 132.21,6.70 134.20,7.16 136.19,7.62 138.18,8.08 140.17,8.54 142.16,9.00 144.15,9.46 146.14,9.92 148.12,10.37 150.11,10.82 152.10,11.27 154.08,11.70 156.07,12.14 158.05,12.55 160.04,12.97 162.02,13.38 164.00,13.78 165.98,14.16 169.58,14.85"/>
    </edge>
    <edge id="10001" from="88" to="174" priority="-1" shape="169.28,16.40 167.67,16.11 165.68,15.73 163.69,15.35 161.70,14.95 159.71,14.54 157.72,14.12 155.73,13.70 153.74,13.26 151.75,12.83 149.76,12.38 147.77,11.93 145.78,11.48 143.79,11.02 141.80,10.56 139.81,10.10 137.82,9.64 135.83,9.18 133.84,8.72 131.85,8.26 129.86,7.81 127.87,7.36 125.88,6.91 123.89,6.47 121.90,6.04 119.91,5.62 117.92,5.20 115.93,4.79 113.93,4.40 111.94,4.01 109.95,3.64 107.96,3.28 105.97,2.93 103.97,2.60 101.98,2.28 99.99,1.98 97.99,1.70 96.00,1.43 94.01,1.19 92.01,0.96 90.01,0.76 88.02,0.57 86.02,0.41 84.02,0.28 82.03,0.16 80.03,0.08 78.03,0.02 76.88,0.00 74.87,0.03 72.85,0.13 70.83,0.29 68.81,0.51 66.78,0.77 64.75,1.08 62.71,1.43 60.67,1.81 58.63,2.22 56.59,2.65 54.54,3.09 52.50,3.54 50.46,3.99 48.41,4.44 46.37,4.88 44.32,5.31 42.28,5.71 40.25,6.09 38.21,6.44 36.18,6.75 34.15,7.01 32.12,7.23 30.10,7.39 28.09,7.48 26.08,7.51 24.08,7.47 22.08,7.33 20.99,7.23 18.99,6.93 17.02,6.53 15.08,6.03 13.17,5.46 11.27,4.82 9.39,4.14 7.51,3.43 5.64,2.71 3.77,1.99 1.89,1.29">
        <lane id="10001_0" index="0" speed="13.89" length="173.48" shape="167.86,24.27 166.21,23.97 164.18,23.59 162.15,23.20 160.10,22.79 158.08,22.37 156.07,21.95 154.04,21.52 152.03,21.08 150.02,20.64 148.00,20.18 146.01,19.73 144.00,19.28 141.99,18.81 140.00,18.35 138.01,17.89 136.02,17.43 134.03,16.97 132.04,16.51 130.07,16.06 128.10,15.61 126.11,15.16 124.13,14.72 122.18,14.29 120.23,13.86 118.26,13.45 116.29,13.03 114.36,12.63 112.40,12.25 110.44,11.87 108.51,11.51 106.56,11.16 104.63,10.82 102.68,10.50 100.75,10.18 98.84,9.90 96.90,9.63 94.98,9.37 93.07,9.14 91.15,8.91 89.23,8.72 87.32,8.54 85.44,8.39 83.52,8.26 81.63,8.15 79.75,8.08 77.83,8.02 76.91,8.00 75.13,8.03 73.36,8.11 71.58,8.25 69.75,8.45 67.89,8.69 66.03,8.98 64.12,9.30 62.19,9.66 60.24,10.06 58.25,10.47 56.24,10.91 54.22,11.35 52.18,11.80 50.11,12.26 48.03,12.70 45.91,13.15 43.79,13.57 41.66,13.96 39.49,14.34 37.29,14.67 35.09,14.95 32.87,15.20 30.60,15.37 28.33,15.48 26.06,15.51 23.72,15.46 21.46,15.31 20.03,15.18 17.60,14.81 15.22,14.33 12.94,13.74 10.75,13.08 8.63,12.37 6.62,11.64 4.66,10.90 2.77,10.18 0.94,9.47 -2.78,8.09"/>
        <lane id="10001_1" index="1" speed="13.89" length="173.48" shape="168.43,21.12 166.79,20.83 164.78,20.44 162.77,20.06 160.74,19.65 158.73,19.24 156.73,18.82 154.72,18.39 152.71,17.95 150.71,17.52 148.70,17.06 146.71,16.61 144.71,16.16 142.71,15.70 140.72,15.24 138.73,14.78 136.74,14.32 134.75,13.86 132.76,13.40 130.78,12.94 128.80,12.49 126.81,12.04 124.83,11.59 122.86,11.16 120.90,10.73 118.92,10.32 116.94,9.90 114.99,9.50 113.01,9.11 111.04,8.72 109.08,8.36 107.12,8.01 105.16,7.66 103.20,7.34 101.24,7.02 99.30,6.73 97.33,6.46 95.39,6.19 93.45,5.96 91.50,5.73 89.54,5.54 87.60,5.35 85.67,5.20 83.72,5.07 81.79,4.95 79.86,4.88 77.91,4.82 76.90,4.80 75.02,4.83 73.16,4.92 71.28,5.07 69.37,5.28 67.45,5.52 65.52,5.82 63.56,6.15 61.58,6.52 59.60,6.92 57.59,7.34 55.56,7.78 53.53,8.23 51.49,8.68 49.43,9.13 47.37,9.57 45.27,10.01 43.18,10.42 41.10,10.81 38.98,11.18 36.85,11.50 34.71,11.78 32.57,12.01 30.40,12.18 28.23,12.28 26.07,12.31 23.86,12.27 21.71,12.12 20.41,12.00 18.16,11.66 15.94,11.21 13.79,10.65 11.72,10.03 9.69,9.35 7.73,8.64 5.80,7.91 3.92,7.19 2.07,6.48 -1.66,5.09"/>
        <lane id="10001_2" index="2" speed="13.89" length="173.48" shape="169.00,17.97 167.38,17.68 165.38,17.30 163.38,16.92 161.38,16.52 159.38,16.11 157.39,15.69 155.39,15.26 153.40,14.82 151.40,14.39 149.41,13.94 147.42,13.49 145.42,13.04 143.43,12.58 141.44,12.12 139.45,11.66 137.46,11.20 135.47,10.74 133.48,10.28 131.49,9.82 129.51,9.37 127.52,8.92 125.53,8.47 123.55,8.03 121.57,7.60 119.58,7.19 117.59,6.77 115.62,6.36 113.62,5.97 111.64,5.58 109.66,5.21 107.68,4.86 105.70,4.51 103.71,4.18 101.73,3.86 99.76,3.56 97.77,3.29 95.80,3.02 93.82,2.78 91.84,2.55 89.85,2.35 87.88,2.16 85.90,2.01 83.92,1.88 81.95,1.76 79.97,1.68 77.99,1.62 76.89,1.60 74.92,1.63 72.95,1.73 70.98,1.88 69.00,2.10 67.00,2.35 65.01,2.66 62.99,3.00 60.97,3.38 58.95,3.79 56.92,4.21 54.88,4.65 52.84,5.10 50.80,5.55 48.75,6.00 46.70,6.44 44.64,6.88 42.58,7.28 40.53,7.66 38.47,8.02 36.40,8.33 34.34,8.60 32.27,8.82 30.20,8.99 28.14,9.08 26.08,9.11 24.01,9.07 21.96,8.93 20.80,8.82 18.71,8.51 16.66,8.09 14.65,7.57 12.69,6.98 10.74,6.33 8.84,5.64 6.94,4.92 5.07,4.20 3.20,3.49 -0.54,2.09"/>
    </edge>

    <junction id="1" type="dead_end" x="0.00" y="0.63" incLanes="" intLanes="" shape="0.00,0.63 3.16,-8.43"/>
    <junction id="174" type="dead_end" x="0.00" y="0.63" incLanes="10001_0 10001_1 10001_2" intLanes="" shape="-3.33,9.59 0.01,0.59"/>
    <junction id="87" type="dead_end" x="169.28" y="16.40" incLanes="10000_0 10000_1 10000_2" intLanes="" shape="171.08,6.99 169.28,16.42"/>
    <junction id="88" type="dead_end" x="169.28" y="16.40" incLanes="" intLanes="" shape="169.28,16.40 167.58,25.85"/>

</net>
